<?xml version="1.0" encoding="UTF-8"?>

<!-- generated on mar. 14 déc. 2021 19:12:13 by Eclipse SUMO netedit Version 1.8.0
<configuration xmlns:xsi="http://www.w3.org/2001/XMLSchema-instance" xsi:noNamespaceSchemaLocation="http://sumo.dlr.de/xsd/netconvertConfiguration.xsd">

    <input>
        <sumo-net-file value="/home/byacheur/Apps/artery/scenarios/hybrid_comm/sumo_network%20(copy)/highway-hybrid.net.xml"/>
    </input>

    <output>
        <output-file value="/home/byacheur/Apps/artery/scenarios/hybrid_comm/sumo_network%20(copy)/highway-hybrid.net.xml"/>
    </output>

    <processing>
        <geometry.min-radius.fix.railways value="false"/>
        <geometry.max-grade.fix value="false"/>
        <offset.disable-normalization value="true"/>
        <lefthand value="false"/>
    </processing>

    <junctions>
        <no-internal-links value="true"/>
        <no-turnarounds value="true"/>
        <junctions.corner-detail value="5"/>
        <junctions.limit-turn-speed value="5.5"/>
        <rectangular-lane-cut value="false"/>
    </junctions>

    <pedestrian>
        <walkingareas value="false"/>
    </pedestrian>

    <netedit>
        <additional-files value="/home/byacheur/Apps/artery/scenarios/hybrid_comm/sumo_network%20(copy)/circle.add.xml"/>
        <route-files value="/home/byacheur/Apps/artery/scenarios/hybrid_comm/sumo_network%20(copy)/highway-hybrid.rou.xml"/>
    </netedit>

    <report>
        <aggregate-warnings value="5"/>
    </report>

</configuration>
-->

<net version="1.6" junctionCornerDetail="5" limitTurnSpeed="5.50" xmlns:xsi="http://www.w3.org/2001/XMLSchema-instance" xsi:noNamespaceSchemaLocation="http://sumo.dlr.de/xsd/net_file.xsd">

    <location netOffset="0.00,0.00" convBoundary="-3000.00,-1064.47,339.90,-1000.00" origBoundary="-10000000000.00,-10000000000.00,10000000000.00,10000000000.00" projParameter="!"/>

    <edge id="-edge1" from="jun1" to="jun2" priority="-1">
        <lane id="-edge1_0" index="0" speed="13.89" length="3308.64" shape="-2964.73,-1069.27 328.41,-1069.27"/>
        <lane id="-edge1_1" index="1" speed="13.89" length="3308.64" shape="-2964.73,-1066.07 328.41,-1066.07"/>
    </edge>
    <edge id="edge1" from="jun2" to="jun1" priority="-1">
        <lane id="edge1_0" index="0" speed="13.89" length="3308.64" shape="328.41,-1059.67 -2964.73,-1059.67"/>
        <lane id="edge1_1" index="1" speed="13.89" length="3308.64" shape="328.41,-1062.87 -2964.73,-1062.87"/>
    </edge>
    <edge id="gneE1" from="jun2" to="gneJ1" priority="-1">
        <lane id="gneE1_0" index="0" speed="13.89" length="75.82" shape="337.94,-1052.18 305.96,-1000.51"/>
        <lane id="gneE1_1" index="1" speed="13.89" length="75.82" shape="335.22,-1053.86 303.24,-1002.19"/>
    </edge>
    <edge id="gneE2" from="gneJ1" to="gneJ4" priority="-1">
        <lane id="gneE2_0" index="0" speed="13.89" length="3300.00" shape="296.43,-995.20 -2989.78,-995.20"/>
        <lane id="gneE2_1" index="1" speed="13.89" length="3300.00" shape="296.43,-998.40 -2989.78,-998.40"/>
    </edge>
    <edge id="gneE3" from="gneJ4" to="jun1" priority="-1" shape="-3000.00,-1000.00 -2991.07,-1018.41 -2968.74,-1064.47">
        <lane id="gneE3_0" index="0" speed="13.89" length="71.65" shape="-2999.86,-1011.29 -2995.39,-1020.50 -2974.81,-1062.96"/>
        <lane id="gneE3_1" index="1" speed="13.89" length="71.65" shape="-2996.98,-1009.89 -2992.51,-1019.11 -2971.93,-1061.56"/>
    </edge>
    <edge id="gneE4" from="jun1" to="gneJ4" priority="-1">
        <lane id="gneE4_0" index="0" speed="13.89" length="71.65" shape="-2966.17,-1058.77 -2991.22,-1007.10"/>
        <lane id="gneE4_1" index="1" speed="13.89" length="71.65" shape="-2969.05,-1060.16 -2994.10,-1008.49"/>
    </edge>
    <edge id="gneE5" from="gneJ4" to="gneJ1" priority="-1">
        <lane id="gneE5_0" index="0" speed="13.89" length="3300.00" shape="-2989.78,-1004.80 296.43,-1004.80"/>
        <lane id="gneE5_1" index="1" speed="13.89" length="3300.00" shape="-2989.78,-1001.60 296.43,-1001.60"/>
    </edge>
    <edge id="gneE6" from="gneJ1" to="jun2" priority="-1">
        <lane id="gneE6_0" index="0" speed="13.89" length="75.82" shape="297.79,-1005.56 329.77,-1057.23"/>
        <lane id="gneE6_1" index="1" speed="13.89" length="75.82" shape="300.52,-1003.87 332.49,-1055.54"/>
    </edge>

    <junction id="gneJ1" type="priority" x="300.00" y="-1000.00" incLanes="gneE1_0 gneE1_1 gneE5_0 gneE5_1" intLanes="" shape="307.32,-999.66 296.43,-1006.40 296.43,-993.60 298.72,-993.77 300.81,-994.27 302.72,-995.12 304.44,-996.30 305.97,-997.81">
        <request index="0" response="0000" foes="0000"/>
        <request index="1" response="0000" foes="0000"/>
        <request index="2" response="0000" foes="0000"/>
        <request index="3" response="0000" foes="0000"/>
    </junction>
    <junction id="gneJ4" type="priority" x="-3000.00" y="-1000.00" incLanes="gneE2_0 gneE2_1 gneE4_0 gneE4_1" intLanes="" shape="-2989.78,-993.60 -2989.78,-1006.40 -3001.30,-1011.99 -3003.46,-1006.37 -3003.98,-1001.77 -3002.88,-998.20 -3000.15,-995.64 -2995.78,-994.11">
        <request index="0" response="0000" foes="0000"/>
        <request index="1" response="0000" foes="0000"/>
        <request index="2" response="0000" foes="0000"/>
        <request index="3" response="0000" foes="0000"/>
    </junction>
    <junction id="jun1" type="priority" x="-2968.74" y="-1064.47" incLanes="edge1_0 edge1_1 gneE3_0 gneE3_1" intLanes="" shape="-2964.73,-1058.07 -2964.73,-1070.87 -2967.28,-1070.67 -2969.57,-1070.07 -2971.62,-1069.07 -2973.41,-1067.66 -2974.96,-1065.86 -2976.25,-1063.65">
        <request index="0" response="0000" foes="0000"/>
        <request index="1" response="0000" foes="0000"/>
        <request index="2" response="0000" foes="0000"/>
        <request index="3" response="0000" foes="0000"/>
    </junction>
    <junction id="jun2" type="priority" x="339.90" y="-1064.47" incLanes="-edge1_0 -edge1_1 gneE6_0 gneE6_1" intLanes="" shape="328.41,-1070.87 328.41,-1058.07 339.30,-1051.33 342.35,-1057.30 343.46,-1062.19 342.62,-1065.99 339.83,-1068.70 335.10,-1070.33">
        <request index="0" response="0000" foes="0000"/>
        <request index="1" response="0000" foes="0000"/>
        <request index="2" response="0000" foes="0000"/>
        <request index="3" response="0000" foes="0000"/>
    </junction>

    <connection from="-edge1" to="gneE1" fromLane="0" toLane="0" dir="l" state="M"/>
    <connection from="-edge1" to="gneE1" fromLane="1" toLane="1" dir="l" state="M"/>
    <connection from="edge1" to="gneE4" fromLane="0" toLane="0" dir="r" state="M"/>
    <connection from="edge1" to="gneE4" fromLane="1" toLane="1" dir="r" state="M"/>
    <connection from="gneE1" to="gneE2" fromLane="0" toLane="0" dir="l" state="M"/>
    <connection from="gneE1" to="gneE2" fromLane="1" toLane="1" dir="l" state="M"/>
    <connection from="gneE2" to="gneE3" fromLane="0" toLane="0" dir="l" state="M"/>
    <connection from="gneE2" to="gneE3" fromLane="1" toLane="1" dir="l" state="M"/>
    <connection from="gneE3" to="-edge1" fromLane="0" toLane="0" dir="l" state="M"/>
    <connection from="gneE3" to="-edge1" fromLane="1" toLane="1" dir="l" state="M"/>
    <connection from="gneE4" to="gneE5" fromLane="0" toLane="0" dir="r" state="M"/>
    <connection from="gneE4" to="gneE5" fromLane="1" toLane="1" dir="r" state="M"/>
    <connection from="gneE5" to="gneE6" fromLane="0" toLane="0" dir="r" state="M"/>
    <connection from="gneE5" to="gneE6" fromLane="1" toLane="1" dir="r" state="M"/>
    <connection from="gneE6" to="edge1" fromLane="0" toLane="0" dir="r" state="M"/>
    <connection from="gneE6" to="edge1" fromLane="1" toLane="1" dir="r" state="M"/>

</net>
